ra-optimisation/rao-commons/src/test/resources/TestCase12Nodes_withXnodes.uct
##C 2007.05.01
##N
##ZBE
BBE1AA11 BE1          0 2 400.00 2500.00 0.00000 -1500.0 0.00000 9000.00 -9000.0 9000.00 -9000.0
BBE2AA1  BE2          0 2 400.00 1000.00 0.00000 -3000.0 0.00000 9000.00 -9000.0 9000.00 -9000.0
BBE3AA11 BE3          0 2 400.00 1500.00 0.00000 -2500.0 0.00000 9000.00 -9000.0 9000.00 -9000.0
##ZDE
DDE1AA11 DE1          0 2 400.00 3500.00 0.00000 -2500.0 0.00000 9000.00 -9000.0 9000.00 -9000.0
DDE2AA11 DE2          0 2 400.00 3000.00 0.00000 -2000.0 0.00000 9000.00 -9000.0 9000.00 -9000.0
DDE3AA11 DE3          0 2 400.00 2000.00 0.00000 -1500.0 0.00000 9000.00 -9000.0 9000.00 -9000.0
##ZFR
FFR1AA11 FR1          0 2 400.00 1000.00 0.00000 -2000.0 0.00000 9000.00 -9000.0 9000.00 -9000.0
FFR2AA11 FR2          0 2 400.00 3500.00 0.00000 -2000.0 0.00000 9000.00 -9000.0 9000.00 -9000.0
FFR3AA11 FR3          0 2 400.00 1500.00 0.00000 -3000.0 0.00000 9000.00 -9000.0 9000.00 -9000.0
##ZNL
NNL1AA11 NL1          0 2 400.00 1000.00 0.00000 -1500.0 0.00000 9000.00 -9000.0 9000.00 -9000.0
NNL2AA11 NL2          0 2 400.00 1000.00 0.00000 -500.00 0.00000 9000.00 -9000.0 9000.00 -9000.0
NNL3AA11 NL3          0 2 400.00 2500.00 0.00000 -2000.0 0.00000 9000.00 -9000.0 9000.00 -9000.0
##ZXX
X_BEFR11              0 0        0.00000 0.00000 0.00000 0.00000
X_BENL11              0 0        0.00000 0.00000 0.00000 0.00000
X_DEFR11              0 0        0.00000 0.00000 0.00000 0.00000
X_DENL11              0 0        0.00000 0.00000 0.00000 0.00000

##L
BBE1AA11 BBE2AA1  1 0 0.0000 10.000 0.000000   5000
BBE1AA11 BBE3AA11 1 0 0.0000 10.000 0.000000   5000
FFR1AA11 FFR2AA11 1 0 0.0000 10.000 0.000000   5000
FFR1AA11 FFR3AA11 1 0 0.0000 10.000 0.000000   5000
FFR2AA11 FFR3AA11 1 0 0.0000 10.000 0.000000   5000
DDE1AA11 DDE2AA11 1 0 0.0000 10.000 0.000000   5000
DDE1AA11 DDE3AA11 1 0 0.0000 10.000 0.000000   5000
DDE2AA11 DDE3AA11 1 0 0.0000 10.000 0.000000   5000 ROT
NNL1AA11 NNL2AA11 1 0 0.0000 10.000 0.000000   5000
NNL1AA11 NNL3AA11 1 0 0.0000 10.000 0.000000   5000
NNL2AA11 NNL3AA11 1 0 0.0000 10.000 0.000000   5000
FFR2AA11 X_DEFR11 1 0 0.0000 10.000 0.000000   5000
DDE3AA11 X_DEFR11 1 0 0.0000 10.000 0.000000   5000
DDE2AA11 X_DENL11 1 0 0.0000 10.000 0.000000   5000
NNL3AA11 X_DENL11 1 0 0.0000 10.000 0.000000   5000
NNL2AA11 X_BENL11 1 0 0.0000 10.000 0.000000   5000
BBE3AA11 X_BENL11 1 0 0.0000 10.000 0.000000   5000
BBE2AA1  X_BEFR11 1 0 0.0000 10.000 0.000000   5000
FFR3AA11 X_BEFR11 1 0 0.0000 10.000 0.000000   5000